Version 4
SHEET 1 880 680
WIRE 128 -176 -64 -176
WIRE -64 -96 -64 -176
WIRE -16 -96 -64 -96
WIRE -896 -64 -1056 -64
WIRE -352 -64 -400 -64
WIRE -208 -64 -352 -64
WIRE -16 -64 -48 -64
WIRE 48 -64 48 -80
WIRE 128 -64 128 -176
WIRE 128 -64 48 -64
WIRE -208 -48 -208 -64
WIRE 48 -32 48 -64
WIRE -48 -16 -48 -64
WIRE 16 -16 -48 -16
WIRE -1056 0 -1056 -64
WIRE -1008 0 -1056 0
WIRE -896 16 -896 -64
WIRE -896 16 -944 16
WIRE -832 16 -896 16
WIRE 16 16 16 -16
WIRE 16 16 -128 16
WIRE -1136 32 -1136 16
WIRE -1008 32 -1136 32
WIRE -1136 48 -1136 32
WIRE -976 80 -976 48
WIRE 192 80 192 48
WIRE 256 80 192 80
WIRE 384 80 320 80
WIRE -544 112 -736 112
WIRE -288 112 -480 112
WIRE 192 112 192 80
WIRE 384 128 384 80
WIRE -80 192 -144 192
WIRE 48 192 48 48
WIRE 48 192 -16 192
WIRE 144 192 48 192
WIRE -736 208 -736 112
WIRE -688 208 -736 208
WIRE -576 208 -608 208
WIRE -416 208 -448 208
WIRE -288 208 -288 112
WIRE -288 208 -336 208
WIRE -736 240 -736 208
WIRE -288 240 -288 208
WIRE -896 272 -1056 272
WIRE 192 272 192 208
WIRE -1200 336 -1200 288
WIRE -1136 336 -1200 336
WIRE -1040 336 -1136 336
WIRE -896 352 -896 272
WIRE -896 352 -976 352
WIRE -736 352 -736 320
WIRE -736 352 -832 352
WIRE -688 352 -736 352
WIRE -512 352 -608 352
WIRE -416 352 -512 352
WIRE -288 352 -288 320
WIRE -288 352 -336 352
WIRE -1296 368 -1504 368
WIRE -1136 368 -1232 368
WIRE -1072 368 -1136 368
WIRE -1040 368 -1072 368
WIRE 192 368 192 352
WIRE -1072 416 -1072 368
WIRE -1136 480 -1136 448
WIRE -1072 512 -1072 480
WIRE -288 512 -288 352
WIRE -144 512 -144 192
WIRE -144 512 -288 512
WIRE -512 544 -512 352
WIRE -400 544 -512 544
WIRE -288 560 -288 512
WIRE -288 560 -336 560
WIRE -400 576 -480 576
WIRE -368 624 -368 592
FLAG 384 208 0
FLAG 192 368 0
FLAG 192 -32 vcc
FLAG -1504 448 0
FLAG -640 16 0
FLAG -640 -64 vcc
FLAG 16 -112 vcc
FLAG 16 -48 0
FLAG -352 0 0
FLAG -480 -64 vcc
FLAG -208 80 0
FLAG -832 16 COM
FLAG -1136 -64 vcc
FLAG -1136 128 0
FLAG -976 80 0
FLAG -976 -16 vcc
FLAG -1280 288 COM
FLAG -1136 480 COM
FLAG -1008 320 vcc
FLAG -1008 384 0
FLAG -1072 512 COM
FLAG -480 576 COM
FLAG -368 624 0
FLAG -368 528 vcc
SYMBOL nmos 144 112 R0
SYMATTR InstName M1
SYMATTR Value IRFZ44N
SYMBOL res 176 -48 R0
SYMATTR InstName R1
SYMATTR Value 12
SYMBOL res 176 256 R0
SYMATTR InstName R2
SYMATTR Value 2.2
SYMBOL cap 320 64 R90
WINDOW 0 0 32 VBottom 2
WINDOW 3 32 32 VTop 2
SYMATTR InstName C1
SYMATTR Value 220µ
SYMBOL res 368 112 R0
SYMATTR InstName R3
SYMATTR Value 8
SYMBOL res 32 -48 R0
SYMATTR InstName R4
SYMATTR Value 100k
SYMBOL cap -16 176 R90
WINDOW 0 0 32 VBottom 2
WINDOW 3 32 32 VTop 2
SYMATTR InstName C2
SYMATTR Value 100n
SYMBOL Misc\\signal -1504 352 R0
WINDOW 123 24 160 Left 2
WINDOW 39 24 132 Left 2
SYMATTR InstName V1
SYMATTR Value2 AC 1
SYMATTR SpiceLine Rser=1meg
SYMBOL voltage -640 -80 R0
WINDOW 123 0 0 Left 2
WINDOW 39 0 0 Left 2
SYMATTR InstName V2
SYMATTR Value 8
SYMBOL Opamps\\opamp2 16 -144 R0
SYMATTR InstName U2
SYMATTR Value tl071
SYMBOL res -384 -80 R90
WINDOW 0 0 56 VBottom 2
WINDOW 3 32 56 VTop 2
SYMATTR InstName R5
SYMATTR Value 2k2
SYMBOL zener -336 0 R180
WINDOW 0 24 64 Left 2
WINDOW 3 24 0 Left 2
SYMATTR InstName D1
SYMATTR Value EDZV6_2B
SYMATTR Description Diode
SYMATTR Type diode
SYMBOL Potentiometer -208 16 R0
SYMATTR InstName U1
SYMATTR SpiceLine RES=100K POS=0.8
SYMBOL Opamps\\opamp2 -1008 288 R0
SYMATTR InstName U3
SYMATTR Value tl071
SYMBOL Potentiometer -1136 272 R0
SYMATTR InstName U4
SYMATTR SpiceLine RES=100K POS=0.1
SYMBOL Opamps\\opamp2 -976 -48 R0
SYMATTR InstName U5
SYMATTR Value tl071
SYMBOL res -1152 -80 R0
SYMATTR InstName R6
SYMATTR Value 10k
SYMBOL res -1152 32 R0
SYMATTR InstName R7
SYMATTR Value 10k
SYMBOL cap -1232 352 R90
WINDOW 0 0 32 VBottom 2
WINDOW 3 32 32 VTop 2
SYMATTR InstName C3
SYMATTR Value 22n
SYMBOL res -1152 352 R0
SYMATTR InstName R8
SYMATTR Value 1meg
SYMBOL res -1184 272 R90
WINDOW 0 0 56 VBottom 2
WINDOW 3 32 56 VTop 2
SYMATTR InstName R9
SYMATTR Value 47k
SYMBOL cap -1088 416 R0
SYMATTR InstName C5
SYMATTR Value 2p2
SYMBOL cap -832 336 R90
WINDOW 0 0 32 VBottom 2
WINDOW 3 32 32 VTop 2
SYMATTR InstName C4
SYMATTR Value 100n
SYMBOL res -752 224 R0
SYMATTR InstName R10
SYMATTR Value 4k7
SYMBOL res -592 336 R90
WINDOW 0 0 56 VBottom 2
WINDOW 3 32 56 VTop 2
SYMATTR InstName R11
SYMATTR Value 470k
SYMBOL res -592 192 R90
WINDOW 0 0 56 VBottom 2
WINDOW 3 32 56 VTop 2
SYMATTR InstName R12
SYMATTR Value 10k
SYMBOL cap -528 288 R0
SYMATTR InstName C6
SYMATTR Value 2n2
SYMBOL Potentiometer -512 208 M90
SYMATTR InstName U6
SYMATTR SpiceLine RES=50K POS=0.7
SYMBOL res -320 336 R90
WINDOW 0 0 56 VBottom 2
WINDOW 3 32 56 VTop 2
SYMATTR InstName R13
SYMATTR Value 470k
SYMBOL res -320 192 R90
WINDOW 0 0 56 VBottom 2
WINDOW 3 32 56 VTop 2
SYMATTR InstName R14
SYMATTR Value 10k
SYMBOL cap -480 96 R90
WINDOW 0 0 32 VBottom 2
WINDOW 3 32 32 VTop 2
SYMATTR InstName C7
SYMATTR Value 10n
SYMBOL res -304 224 R0
SYMATTR InstName R15
SYMATTR Value 4k7
SYMBOL Opamps\\opamp2 -368 496 R0
SYMATTR InstName U7
SYMATTR Value tl071
TEXT -1202 552 Left 2 !.ac oct 100 1 100k
TEXT -1320 352 Left 2 !.lib TL071.mod
